<?xml version="1.0" encoding="UTF-8"?>

<!-- generated on 01/09/20 23:17:19 by Eclipse SUMO netconvert Version 1.0.1
<configuration xmlns:xsi="http://www.w3.org/2001/XMLSchema-instance" xsi:noNamespaceSchemaLocation="http://sumo.dlr.de/xsd/netconvertConfiguration.xsd">

    <input>
        <node-files value="freeway.nod.xml"/>
        <edge-files value="freeway.edg.xml"/>
    </input>

    <output>
        <output-file value="freeway.net.xml"/>
    </output>

    <junctions>
        <no-turnarounds value="true"/>
    </junctions>

    <report>
        <verbose value="true"/>
    </report>

</configuration>
-->

<net version="1.0" junctionCornerDetail="5" limitTurnSpeed="5.50" xmlns:xsi="http://www.w3.org/2001/XMLSchema-instance" xsi:noNamespaceSchemaLocation="http://sumo.dlr.de/xsd/net_file.xsd">

    <location netOffset="300.00,0.00" convBoundary="0.00,0.00,2600.00,0.00" origBoundary="-300.00,0.00,2300.00,0.00" projParameter="!"/>

    <edge id=":a1_0" function="internal">
        <lane id=":a1_0_0" index="0" speed="33.00" length="0.10" shape="300.00,-11.20 300.00,-11.20"/>
        <lane id=":a1_0_1" index="1" speed="33.00" length="0.10" shape="300.00,-8.00 300.00,-8.00"/>
        <lane id=":a1_0_2" index="2" speed="33.00" length="0.10" shape="300.00,-4.80 300.00,-4.80"/>
        <lane id=":a1_0_3" index="3" speed="33.00" length="0.10" shape="300.00,-1.60 300.00,-1.60"/>
    </edge>
    <edge id=":a2_0" function="internal">
        <lane id=":a2_0_0" index="0" speed="33.00" length="0.10" shape="2300.00,-11.20 2300.00,-11.20"/>
        <lane id=":a2_0_1" index="1" speed="33.00" length="0.10" shape="2300.00,-8.00 2300.00,-8.00"/>
        <lane id=":a2_0_2" index="2" speed="33.00" length="0.10" shape="2300.00,-4.80 2300.00,-4.80"/>
        <lane id=":a2_0_3" index="3" speed="33.00" length="0.10" shape="2300.00,-1.60 2300.00,-1.60"/>
    </edge>

    <edge id="a1i_1" from="a1" to="a2" priority="78">
        <lane id="a1i_1_0" index="0" speed="33.00" length="2000.00" shape="300.00,-11.20 2300.00,-11.20"/>
        <lane id="a1i_1_1" index="1" speed="33.00" length="2000.00" shape="300.00,-8.00 2300.00,-8.00"/>
        <lane id="a1i_1_2" index="2" speed="33.00" length="2000.00" shape="300.00,-4.80 2300.00,-4.80"/>
        <lane id="a1i_1_3" index="3" speed="33.00" length="2000.00" shape="300.00,-1.60 2300.00,-1.60"/>
    </edge>
    <edge id="bi" from="b" to="a1" priority="78">
        <lane id="bi_0" index="0" speed="33.00" length="300.00" shape="0.00,-11.20 300.00,-11.20"/>
        <lane id="bi_1" index="1" speed="33.00" length="300.00" shape="0.00,-8.00 300.00,-8.00"/>
        <lane id="bi_2" index="2" speed="33.00" length="300.00" shape="0.00,-4.80 300.00,-4.80"/>
        <lane id="bi_3" index="3" speed="33.00" length="300.00" shape="0.00,-1.60 300.00,-1.60"/>
    </edge>
    <edge id="ci" from="a2" to="c" priority="78">
        <lane id="ci_0" index="0" speed="33.00" length="300.00" shape="2300.00,-11.20 2600.00,-11.20"/>
        <lane id="ci_1" index="1" speed="33.00" length="300.00" shape="2300.00,-8.00 2600.00,-8.00"/>
        <lane id="ci_2" index="2" speed="33.00" length="300.00" shape="2300.00,-4.80 2600.00,-4.80"/>
        <lane id="ci_3" index="3" speed="33.00" length="300.00" shape="2300.00,-1.60 2600.00,-1.60"/>
    </edge>

    <junction id="a1" type="priority" x="300.00" y="0.00" incLanes="bi_0 bi_1 bi_2 bi_3" intLanes=":a1_0_0 :a1_0_1 :a1_0_2 :a1_0_3" shape="300.00,0.00 300.00,-12.80 300.00,0.00">
        <request index="0" response="0000" foes="0000" cont="0"/>
        <request index="1" response="0000" foes="0000" cont="0"/>
        <request index="2" response="0000" foes="0000" cont="0"/>
        <request index="3" response="0000" foes="0000" cont="0"/>
    </junction>
    <junction id="a2" type="priority" x="2300.00" y="0.00" incLanes="a1i_1_0 a1i_1_1 a1i_1_2 a1i_1_3" intLanes=":a2_0_0 :a2_0_1 :a2_0_2 :a2_0_3" shape="2300.00,0.00 2300.00,-12.80 2300.00,0.00">
        <request index="0" response="0000" foes="0000" cont="0"/>
        <request index="1" response="0000" foes="0000" cont="0"/>
        <request index="2" response="0000" foes="0000" cont="0"/>
        <request index="3" response="0000" foes="0000" cont="0"/>
    </junction>
    <junction id="b" type="dead_end" x="0.00" y="0.00" incLanes="" intLanes="" shape="0.00,0.00 0.00,-12.80"/>
    <junction id="c" type="dead_end" x="2600.00" y="0.00" incLanes="ci_0 ci_1 ci_2 ci_3" intLanes="" shape="2600.00,-12.80 2600.00,0.00"/>

    <connection from="a1i_1" to="ci" fromLane="0" toLane="0" via=":a2_0_0" dir="s" state="M"/>
    <connection from="a1i_1" to="ci" fromLane="1" toLane="1" via=":a2_0_1" dir="s" state="M"/>
    <connection from="a1i_1" to="ci" fromLane="2" toLane="2" via=":a2_0_2" dir="s" state="M"/>
    <connection from="a1i_1" to="ci" fromLane="3" toLane="3" via=":a2_0_3" dir="s" state="M"/>
    <connection from="bi" to="a1i_1" fromLane="0" toLane="0" via=":a1_0_0" dir="s" state="M"/>
    <connection from="bi" to="a1i_1" fromLane="1" toLane="1" via=":a1_0_1" dir="s" state="M"/>
    <connection from="bi" to="a1i_1" fromLane="2" toLane="2" via=":a1_0_2" dir="s" state="M"/>
    <connection from="bi" to="a1i_1" fromLane="3" toLane="3" via=":a1_0_3" dir="s" state="M"/>

    <connection from=":a1_0" to="a1i_1" fromLane="0" toLane="0" dir="s" state="M"/>
    <connection from=":a1_0" to="a1i_1" fromLane="1" toLane="1" dir="s" state="M"/>
    <connection from=":a1_0" to="a1i_1" fromLane="2" toLane="2" dir="s" state="M"/>
    <connection from=":a1_0" to="a1i_1" fromLane="3" toLane="3" dir="s" state="M"/>
    <connection from=":a2_0" to="ci" fromLane="0" toLane="0" dir="s" state="M"/>
    <connection from=":a2_0" to="ci" fromLane="1" toLane="1" dir="s" state="M"/>
    <connection from=":a2_0" to="ci" fromLane="2" toLane="2" dir="s" state="M"/>
    <connection from=":a2_0" to="ci" fromLane="3" toLane="3" dir="s" state="M"/>

</net>
